*Heading
 finee
** Job name: fine_mesh_1500 Model name: NACA4424_Airfoil2
** Generated by: Abaqus/CAE 2025
*Preprint, echo=NO, model=NO, history=NO, contact=NO
**
** PARTS
**
*Part, name=Plate
*Node
      1,  0.948040009, -0.00963999983
      2,           1.,           0.
      3,  0.896799982, -0.0165500008
      4,  0.795360029, -0.0300299991
      5,  0.695129991, -0.0431200005
      6,  0.595950007, -0.0556199998
      7,  0.497649997, -0.0669799969
      8,  0.400000006, -0.0760599971
      9,   0.30599001, -0.0823799968
     10,  0.258890003, -0.0841099992
     11,      0.21142, -0.0841600001
     12,  0.163259998, -0.0816899985
     13,      0.11389, -0.075120002
     14,  0.088469997, -0.069310002
     15, 0.0622499995, -0.0606600009
     16, 0.0346399993, -0.0465600006
     17, 0.0197000001, -0.0347199999
     18,           0.,           0.
     19, 0.00529999984, 0.0396399982
     20, 0.0153599996, 0.0562399998
** ... 853 like lines cut
*Element, type=CPS3
   1, 203,   1, 195
   2, 195,   3, 190
   3, 190,  39, 189
   4, 188,  40, 187
   5, 269, 230, 267
   6, 183,  42, 182
   7, 181,  43, 180
   8, 176,  44, 175
   9, 224, 223, 180
  10, 178, 177,  10
  11, 179, 178,  11
  12, 184,  13, 157
  13, 261, 184, 217
  14, 161,  15,  16
  15, 161,  16, 155
  16, 155,  16,  17
  17, 163, 155,  17
  18, 623, 530,  84
  19, 164,  19, 156
  20, 219, 167, 216
** ... 1572 like lines cut
*Nset, nset=Set-1, generate
   1,  873,    1
*Elset, elset=Set-1, generate
    1,  1592,     1
** Section: platesection
*Solid Section, elset=Set-1, material=plate
,
*End Part
**  
**
** ASSEMBLY
**
*Assembly, name=Assembly
**  
*Instance, name=Plate-1, part=Plate
*End Instance
**  
*End Assembly
** 
** MATERIALS
** 
*Material, name=plate
*Elastic
 2e+11, 0.3
** ----------------------------------------------------------------
** 
** STEP: Step-1
** 
*Step, name=Step-1, nlgeom=NO
airfoil
*Static
1., 1., 1e-05, 1.
** 
** OUTPUT REQUESTS
** 
*Restart, write, frequency=0
** 
** FIELD OUTPUT: F-Output-1
** 
*Output, field, variable=PRESELECT
** 
** HISTORY OUTPUT: H-Output-1
** 
*Output, history, variable=PRESELECT
*End Step
