*Heading
 COARSEE
** Job name: COARSEE Model name: NACA4424_Airfoil2
** Generated by: Abaqus/CAE 2025
*Preprint, echo=NO, model=NO, history=NO, contact=NO
**
** PARTS
**
*Part, name=Plate
*Node
      1,  0.948040009, -0.00963999983
      2,           1.,           0.
      3,  0.896799982, -0.0165500008
      4,  0.795360029, -0.0300299991
      5,  0.695129991, -0.0431200005
      6,  0.595950007, -0.0556199998
      7,  0.497649997, -0.0669799969
      8,  0.400000006, -0.0760599971
      9,   0.30599001, -0.0823799968
     10,  0.258890003, -0.0841099992
     11,      0.21142, -0.0841600001
     12,  0.163259998, -0.0816899985
     13,      0.11389, -0.075120002
     14,  0.088469997, -0.069310002
     15, 0.0622499995, -0.0606600009
     16, 0.0346399993, -0.0465600006
     17, 0.0197000001, -0.0347199999
     18,           0.,           0.
     19, 0.00529999984, 0.0396399982
     20, 0.0153599996, 0.0562399998
** ... 568 like lines cut
*Element, type=CPS3
   1, 152,   1, 149
   2, 322, 302,  46
   3, 533, 267,   4
   4, 453, 356, 449
   5, 392, 304, 356
   6, 569, 535, 479
   7, 570, 196, 218
   8, 196,   9, 132
   9, 195, 147, 169
  10, 133, 132,  10
  11, 134, 133,  11
  12, 135,  13, 124
  13, 165, 136, 159
  14, 128,  15,  16
  15, 128,  16, 122
  16, 481, 401, 357
  17, 130, 122,  17
  18, 358,  66, 275
  19, 131,  19, 123
  20, 168, 138, 166
** ... 1035 like lines cut
*Nset, nset=Set-1, generate
   1,  588,    1
*Elset, elset=Set-1, generate
    1,  1055,     1
** Section: platesection
*Solid Section, elset=Set-1, material=plate
,
*End Part
**  
**
** ASSEMBLY
**
*Assembly, name=Assembly
**  
*Instance, name=Plate-1, part=Plate
*End Instance
**  
*End Assembly
** 
** MATERIALS
** 
*Material, name=plate
*Elastic
 2e+11, 0.3
** ----------------------------------------------------------------
** 
** STEP: Step-1
** 
*Step, name=Step-1, nlgeom=NO
airfoil
*Static
1., 1., 1e-05, 1.
** 
** OUTPUT REQUESTS
** 
*Restart, write, frequency=0
** 
** FIELD OUTPUT: F-Output-1
** 
*Output, field, variable=PRESELECT
** 
** HISTORY OUTPUT: H-Output-1
** 
*Output, history, variable=PRESELECT
*End Step
